                                  MODFLOW-2005     
      U.S. GEOLOGICAL SURVEY MODULAR FINITE-DIFFERENCE GROUND-WATER FLOW MODEL
                            VERSION 1.12.00 2/3/2017

 LIST FILE: 01_EX.list
                         UNIT    2

 OPENING 01_EX.dis
 FILE TYPE:DIS   UNIT   11   STATUS:OLD    
 FORMAT:FORMATTED              ACCESS:SEQUENTIAL          

 OPENING 01_EX.bas
 FILE TYPE:BAS6   UNIT   13   STATUS:OLD    
 FORMAT:FORMATTED              ACCESS:SEQUENTIAL          

 OPENING 01_EX.chd
 FILE TYPE:CHD   UNIT   24   STATUS:OLD    
 FORMAT:FORMATTED              ACCESS:SEQUENTIAL          

 OPENING 01_EX.lpf
 FILE TYPE:LPF   UNIT   15   STATUS:OLD    
 FORMAT:FORMATTED              ACCESS:SEQUENTIAL          

 OPENING 01_EX.pcg
 FILE TYPE:PCG   UNIT   27   STATUS:OLD    
 FORMAT:FORMATTED              ACCESS:SEQUENTIAL          

 OPENING 01_EX.oc
 FILE TYPE:OC   UNIT   14   STATUS:OLD    
 FORMAT:FORMATTED              ACCESS:SEQUENTIAL          

 OPENING 01_EX.cbc
 FILE TYPE:DATA(BINARY)   UNIT   53   STATUS:REPLACE
 FORMAT:BINARY                 ACCESS:SEQUENTIAL          

 OPENING 01_EX.hds
 FILE TYPE:DATA(BINARY)   UNIT   51   STATUS:REPLACE
 FORMAT:BINARY                 ACCESS:SEQUENTIAL          

 BAS -- BASIC PACKAGE, VERSION 7, 5/2/2005 INPUT READ FROM UNIT   13
 
 MODFLOW was compiled using mixed precision
 Precision of REAL variables:           6
 Precision of DOUBLE PRECISION variables:          15

 DISCRETIZATION INPUT DATA READ FROM UNIT   11
 # DIS package for MODFLOW-2005 generated by Flopy 3.5.0
    5 LAYERS        20 ROWS        20 COLUMNS
    1 STRESS PERIOD(S) IN SIMULATION
 MODEL TIME UNIT IS SECONDS
 MODEL LENGTH UNIT IS METERS
  Confining bed flag for each layer:
   0   0   0   0   0

                     DELR =   2.00000    

                     DELC =   2.00000    

 TOP ELEVATION OF LAYER 1 =   10.0000    

   MODEL LAYER BOTTOM EL. =   8.00000     FOR LAYER   1

   MODEL LAYER BOTTOM EL. =   6.00000     FOR LAYER   2

   MODEL LAYER BOTTOM EL. =   4.00000     FOR LAYER   3

   MODEL LAYER BOTTOM EL. =   2.00000     FOR LAYER   4

   MODEL LAYER BOTTOM EL. =   0.00000     FOR LAYER   5


 STRESS PERIOD     LENGTH       TIME STEPS     MULTIPLIER FOR DELT    SS FLAG
 ----------------------------------------------------------------------------
        1         1.000000          1                    1.000         SS

 STEADY-STATE SIMULATION



 
 # BAS6 package for MODFLOW-2005 generated by Flopy 3.5.0                        
 THE FREE FORMAT OPTION HAS BEEN SELECTED



                     BOUNDARY ARRAY FOR LAYER   1
 READING ON UNIT   13 WITH FORMAT: (20I10)             



                     BOUNDARY ARRAY FOR LAYER   2
 READING ON UNIT   13 WITH FORMAT: (20I10)             



                     BOUNDARY ARRAY FOR LAYER   3
 READING ON UNIT   13 WITH FORMAT: (20I10)             



                     BOUNDARY ARRAY FOR LAYER   4
 READING ON UNIT   13 WITH FORMAT: (20I10)             



                     BOUNDARY ARRAY FOR LAYER   5
 READING ON UNIT   13 WITH FORMAT: (20I10)             

 AQUIFER HEAD WILL BE SET TO  -999.99     AT ALL NO-FLOW NODES (IBOUND=0).



                       INITIAL HEAD FOR LAYER   1
 READING ON UNIT   13 WITH FORMAT: (20E15.6)           



                       INITIAL HEAD FOR LAYER   2
 READING ON UNIT   13 WITH FORMAT: (20E15.6)           



                       INITIAL HEAD FOR LAYER   3
 READING ON UNIT   13 WITH FORMAT: (20E15.6)           



                       INITIAL HEAD FOR LAYER   4
 READING ON UNIT   13 WITH FORMAT: (20E15.6)           



                       INITIAL HEAD FOR LAYER   5
 READING ON UNIT   13 WITH FORMAT: (20E15.6)           
 # OC package for MODFLOW-2005 generated by Flopy 3.5.0

 OUTPUT CONTROL IS SPECIFIED ONLY AT TIME STEPS FOR WHICH OUTPUT IS DESIRED
 COMPACT CELL-BY-CELL BUDGET FILES WILL BE WRITTEN
 AUXILIARY DATA WILL BE SAVED IN CELL-BY-CELL BUDGET FILES
 HEAD PRINT FORMAT CODE IS   0    DRAWDOWN PRINT FORMAT CODE IS   0
 HEADS WILL BE SAVED ON UNIT   51    DRAWDOWNS WILL BE SAVED ON UNIT    0

 LPF -- LAYER-PROPERTY FLOW PACKAGE, VERSION 7, 5/2/2005
         INPUT READ FROM UNIT   15
 # LPF package for MODFLOW-2005 generated by Flopy 3.5.0
 CELL-BY-CELL FLOWS WILL BE SAVED ON UNIT   53
 HEAD AT CELLS THAT CONVERT TO DRY= -1.00000E+30
 No named parameters

   LAYER FLAGS:
 LAYER       LAYTYP        LAYAVG         CHANI        LAYVKA        LAYWET
 ---------------------------------------------------------------------------
    1             0             0     1.000E+00             0             0
    2             0             0     1.000E+00             0             0
    3             0             0     1.000E+00             0             0
    4             0             0     1.000E+00             0             0
    5             0             0     1.000E+00             0             0

   INTERPRETATION OF LAYER FLAGS:
                        INTERBLOCK     HORIZONTAL    DATA IN
         LAYER TYPE   TRANSMISSIVITY   ANISOTROPY   ARRAY VKA   WETTABILITY
 LAYER      (LAYTYP)      (LAYAVG)       (CHANI)      (LAYVKA)      (LAYWET)
 ---------------------------------------------------------------------------
    1      CONFINED      HARMONIC     1.000E+00    VERTICAL K  NON-WETTABLE
    2      CONFINED      HARMONIC     1.000E+00    VERTICAL K  NON-WETTABLE
    3      CONFINED      HARMONIC     1.000E+00    VERTICAL K  NON-WETTABLE
    4      CONFINED      HARMONIC     1.000E+00    VERTICAL K  NON-WETTABLE
    5      CONFINED      HARMONIC     1.000E+00    VERTICAL K  NON-WETTABLE

 WETTING CAPABILITY IS NOT ACTIVE IN ANY LAYER

    HYD. COND. ALONG ROWS =  2.500000E-05 FOR LAYER   1

      VERTICAL HYD. COND. =  1.000000E-06 FOR LAYER   1

    HYD. COND. ALONG ROWS =  2.500000E-05 FOR LAYER   2

      VERTICAL HYD. COND. =  1.000000E-06 FOR LAYER   2

    HYD. COND. ALONG ROWS =  2.500000E-05 FOR LAYER   3

      VERTICAL HYD. COND. =  1.000000E-06 FOR LAYER   3

    HYD. COND. ALONG ROWS =  2.500000E-05 FOR LAYER   4

      VERTICAL HYD. COND. =  1.000000E-06 FOR LAYER   4

    HYD. COND. ALONG ROWS =  2.500000E-05 FOR LAYER   5

      VERTICAL HYD. COND. =  1.000000E-06 FOR LAYER   5

 CHD -- TIME-VARIANT SPECIFIED-HEAD OPTION, VERSION 7, 5/2/2005
 INPUT READ FROM UNIT   24
 # CHD package for MODFLOW-2005 generated by Flopy 3.5.0
 No named parameters
 MAXIMUM OF     40 TIME-VARIANT SPECIFIED-HEAD CELLS AT ONE TIME


     0 TIME-VARIANT SPECIFIED-HEAD PARAMETERS

 PCG -- CONJUGATE-GRADIENT SOLUTION PACKAGE, VERSION 7, 5/2/2005
 # PCG package for MODFLOW-2005 generated by Flopy 3.5.0
 MAXIMUM OF     50 CALLS OF SOLUTION ROUTINE
 MAXIMUM OF     30 INTERNAL ITERATIONS PER CALL TO SOLUTION ROUTINE
 MATRIX PRECONDITIONING TYPE :    1



                                    SOLUTION BY THE CONJUGATE-GRADIENT METHOD
                                   -------------------------------------------
                    MAXIMUM NUMBER OF CALLS TO PCG ROUTINE =       50
                        MAXIMUM ITERATIONS PER CALL TO PCG =       30
                               MATRIX PRECONDITIONING TYPE =        1
        RELAXATION FACTOR (ONLY USED WITH PRECOND. TYPE 1) =    0.10000E+01
 PARAMETER OF POLYNOMIAL PRECOND. = 2 (2) OR IS CALCULATED :        0
                         HEAD CHANGE CRITERION FOR CLOSURE =    0.10000E-04
                     RESIDUAL CHANGE CRITERION FOR CLOSURE =    0.10000E-04
            PCG HEAD AND RESIDUAL CHANGE PRINTOUT INTERVAL =      999
     PRINTING FROM SOLVER IS LIMITED(1) OR SUPPRESSED (>1) =        3
                            STEADY-STATE DAMPING PARAMETER =    0.10000E+01
                               TRANSIENT DAMPING PARAMETER =    0.10000E+01
1
                            STRESS PERIOD NO.    1, LENGTH =   1.000000    
                            -----------------------------------------------

                              NUMBER OF TIME STEPS =     1

                               MULTIPLIER FOR DELT =     1.000

                            INITIAL TIME STEP SIZE =   1.000000    

 CHD NO.   LAYER   ROW   COL    START HEAD        END HEAD         
 ------------------------------------------------------------------
      1      2      1      1       9.000           9.000    
      2      2      2      1       9.000           9.000    
      3      2      3      1       9.000           9.000    
      4      2      4      1       9.000           9.000    
      5      2      5      1       9.000           9.000    
      6      2      6      1       9.000           9.000    
      7      2      7      1       9.000           9.000    
      8      2      8      1       9.000           9.000    
      9      2      9      1       9.000           9.000    
     10      2     10      1       9.000           9.000    
     11      2     11      1       9.000           9.000    
     12      2     12      1       9.000           9.000    
     13      2     13      1       9.000           9.000    
     14      2     14      1       9.000           9.000    
     15      2     15      1       9.000           9.000    
     16      2     16      1       9.000           9.000    
     17      2     17      1       9.000           9.000    
     18      2     18      1       9.000           9.000    
     19      2     19      1       9.000           9.000    
     20      2     20      1       9.000           9.000    
     21      2      1     20       9.500           9.500    
     22      2      2     20       9.500           9.500    
     23      2      3     20       9.500           9.500    
     24      2      4     20       9.500           9.500    
     25      2      5     20       9.500           9.500    
     26      2      6     20       9.500           9.500    
     27      2      7     20       9.500           9.500    
     28      2      8     20       9.500           9.500    
     29      2      9     20       9.500           9.500    
     30      2     10     20       9.500           9.500    
     31      2     11     20       9.500           9.500    
     32      2     12     20       9.500           9.500    
     33      2     13     20       9.500           9.500    
     34      2     14     20       9.500           9.500    
     35      2     15     20       9.500           9.500    
     36      2     16     20       9.500           9.500    
     37      2     17     20       9.500           9.500    
     38      2     18     20       9.500           9.500    
     39      2     19     20       9.500           9.500    
     40      2     20     20       9.500           9.500    


     40 TIME-VARIANT SPECIFIED-HEAD CELLS
 
 SOLVING FOR HEAD 

 OUTPUT CONTROL FOR STRESS PERIOD    1   TIME STEP    1
    PRINT HEAD FOR ALL LAYERS
    SAVE HEAD FOR ALL LAYERS
    SAVE BUDGET
 UBDSV2 SAVING "   CONSTANT HEAD" ON UNIT  53 AT TIME STEP  1, STRESS PERIOD   1
 UBDSV1 SAVING "FLOW RIGHT FACE " ON UNIT  53 AT TIME STEP  1, STRESS PERIOD   1
 UBDSV1 SAVING "FLOW FRONT FACE " ON UNIT  53 AT TIME STEP  1, STRESS PERIOD   1
 UBDSV1 SAVING "FLOW LOWER FACE " ON UNIT  53 AT TIME STEP  1, STRESS PERIOD   1
1
              HEAD IN LAYER   1 AT END OF TIME STEP   1 IN STRESS PERIOD    1
  ---------------------------------------------------------------------------

            1           2           3           4           5           6           7           8           9          10
           11          12          13          14          15          16          17          18          19          20
 ........................................................................................................................
   1    9.129       9.134       9.143       9.154       9.167       9.181       9.196       9.211       9.226       9.242    
        9.258       9.274       9.289       9.304       9.319       9.333       9.346       9.357       9.366       9.371    
   2    9.129       9.134       9.143       9.154       9.167       9.181       9.196       9.211       9.226       9.242    
        9.258       9.274       9.289       9.304       9.319       9.333       9.346       9.357       9.366       9.371    
   3    9.129       9.134       9.143       9.154       9.167       9.181       9.196       9.211       9.226       9.242    
        9.258       9.274       9.289       9.304       9.319       9.333       9.346       9.357       9.366       9.371    
   4    9.129       9.134       9.143       9.154       9.167       9.181       9.196       9.211       9.226       9.242    
        9.258       9.274       9.289       9.304       9.319       9.333       9.346       9.357       9.366       9.371    
   5    9.129       9.134       9.143       9.154       9.167       9.181       9.196       9.211       9.226       9.242    
        9.258       9.274       9.289       9.304       9.319       9.333       9.346       9.357       9.366       9.371    
   6    9.129       9.134       9.143       9.154       9.167       9.181       9.196       9.211       9.226       9.242    
        9.258       9.274       9.289       9.304       9.319       9.333       9.346       9.357       9.366       9.371    
   7    9.129       9.134       9.143       9.154       9.167       9.181       9.196       9.211       9.226       9.242    
        9.258       9.274       9.289       9.304       9.319       9.333       9.346       9.357       9.366       9.371    
   8    9.129       9.134       9.143       9.154       9.167       9.181       9.196       9.211       9.226       9.242    
        9.258       9.274       9.289       9.304       9.319       9.333       9.346       9.357       9.366       9.371    
   9    9.129       9.134       9.143       9.154       9.167       9.181       9.196       9.211       9.226       9.242    
        9.258       9.274       9.289       9.304       9.319       9.333       9.346       9.357       9.366       9.371    
  10    9.129       9.134       9.143       9.154       9.167       9.181       9.196       9.211       9.226       9.242    
        9.258       9.274       9.289       9.304       9.319       9.333       9.346       9.357       9.366       9.371    
  11    9.129       9.134       9.143       9.154       9.167       9.181       9.196       9.211       9.226       9.242    
        9.258       9.274       9.289       9.304       9.319       9.333       9.346       9.357       9.366       9.371    
  12    9.129       9.134       9.143       9.154       9.167       9.181       9.196       9.211       9.226       9.242    
        9.258       9.274       9.289       9.304       9.319       9.333       9.346       9.357       9.366       9.371    
  13    9.129       9.134       9.143       9.154       9.167       9.181       9.196       9.211       9.226       9.242    
        9.258       9.274       9.289       9.304       9.319       9.333       9.346       9.357       9.366       9.371    
  14    9.129       9.134       9.143       9.154       9.167       9.181       9.196       9.211       9.226       9.242    
        9.258       9.274       9.289       9.304       9.319       9.333       9.346       9.357       9.366       9.371    
  15    9.129       9.134       9.143       9.154       9.167       9.181       9.196       9.211       9.226       9.242    
        9.258       9.274       9.289       9.304       9.319       9.333       9.346       9.357       9.366       9.371    
  16    9.129       9.134       9.143       9.154       9.167       9.181       9.196       9.211       9.227       9.242    
        9.258       9.274       9.289       9.304       9.319       9.333       9.346       9.357       9.366       9.371    
  17    9.129       9.134       9.143       9.154       9.167       9.181       9.196       9.211       9.227       9.242    
        9.258       9.274       9.289       9.304       9.319       9.333       9.346       9.357       9.366       9.371    
  18    9.129       9.134       9.143       9.154       9.167       9.181       9.196       9.211       9.227       9.242    
        9.258       9.274       9.289       9.304       9.319       9.333       9.346       9.357       9.366       9.371    
  19    9.129       9.134       9.143       9.154       9.167       9.181       9.196       9.211       9.227       9.242    
        9.258       9.274       9.289       9.304       9.319       9.333       9.346       9.357       9.366       9.371    
  20    9.129       9.134       9.143       9.154       9.167       9.181       9.196       9.211       9.226       9.242    
        9.258       9.274       9.289       9.304       9.319       9.333       9.346       9.357       9.366       9.371    
1
              HEAD IN LAYER   2 AT END OF TIME STEP   1 IN STRESS PERIOD    1
  ---------------------------------------------------------------------------

            1           2           3           4           5           6           7           8           9          10
           11          12          13          14          15          16          17          18          19          20
 ........................................................................................................................
   1    9.000       9.045       9.082       9.112       9.139       9.163       9.184       9.204       9.223       9.241    
        9.259       9.277       9.296       9.316       9.337       9.361       9.388       9.418       9.455       9.500    
   2    9.000       9.045       9.082       9.112       9.139       9.163       9.184       9.204       9.223       9.241    
        9.259       9.277       9.296       9.316       9.337       9.361       9.388       9.418       9.455       9.500    
   3    9.000       9.045       9.082       9.112       9.139       9.163       9.184       9.204       9.223       9.241    
        9.259       9.277       9.296       9.316       9.337       9.361       9.388       9.418       9.455       9.500    
   4    9.000       9.045       9.082       9.112       9.139       9.163       9.184       9.204       9.223       9.241    
        9.259       9.277       9.296       9.316       9.337       9.361       9.388       9.418       9.455       9.500    
   5    9.000       9.045       9.082       9.112       9.139       9.163       9.184       9.204       9.223       9.241    
        9.259       9.277       9.296       9.316       9.337       9.361       9.388       9.418       9.455       9.500    
   6    9.000       9.045       9.082       9.112       9.139       9.163       9.184       9.204       9.223       9.241    
        9.259       9.277       9.296       9.316       9.337       9.361       9.388       9.418       9.455       9.500    
   7    9.000       9.045       9.082       9.112       9.139       9.163       9.184       9.204       9.223       9.241    
        9.259       9.277       9.296       9.316       9.337       9.361       9.388       9.418       9.455       9.500    
   8    9.000       9.045       9.082       9.112       9.139       9.163       9.184       9.204       9.223       9.241    
        9.259       9.277       9.296       9.316       9.337       9.361       9.388       9.418       9.455       9.500    
   9    9.000       9.045       9.082       9.112       9.139       9.163       9.184       9.204       9.223       9.241    
        9.259       9.277       9.296       9.316       9.337       9.361       9.388       9.418       9.455       9.500    
  10    9.000       9.045       9.082       9.112       9.139       9.163       9.184       9.204       9.223       9.241    
        9.259       9.277       9.296       9.316       9.337       9.361       9.388       9.418       9.455       9.500    
  11    9.000       9.045       9.082       9.112       9.139       9.163       9.184       9.204       9.223       9.241    
        9.259       9.277       9.296       9.316       9.337       9.361       9.388       9.418       9.455       9.500    
  12    9.000       9.045       9.082       9.112       9.139       9.163       9.184       9.204       9.223       9.241    
        9.259       9.277       9.296       9.316       9.337       9.361       9.388       9.418       9.455       9.500    
  13    9.000       9.045       9.082       9.112       9.139       9.163       9.184       9.204       9.223       9.241    
        9.259       9.277       9.296       9.316       9.337       9.361       9.388       9.418       9.455       9.500    
  14    9.000       9.045       9.082       9.112       9.139       9.163       9.184       9.204       9.223       9.241    
        9.259       9.277       9.296       9.316       9.337       9.361       9.388       9.418       9.455       9.500    
  15    9.000       9.045       9.082       9.112       9.139       9.163       9.184       9.204       9.223       9.241    
        9.259       9.277       9.296       9.316       9.337       9.361       9.388       9.418       9.455       9.500    
  16    9.000       9.045       9.082       9.112       9.139       9.163       9.184       9.204       9.223       9.241    
        9.259       9.277       9.296       9.316       9.337       9.361       9.388       9.418       9.455       9.500    
  17    9.000       9.045       9.082       9.112       9.139       9.163       9.184       9.204       9.223       9.241    
        9.259       9.277       9.296       9.316       9.337       9.361       9.388       9.418       9.455       9.500    
  18    9.000       9.045       9.082       9.112       9.139       9.163       9.184       9.204       9.223       9.241    
        9.259       9.277       9.296       9.316       9.337       9.361       9.388       9.418       9.455       9.500    
  19    9.000       9.045       9.082       9.112       9.139       9.163       9.184       9.204       9.223       9.241    
        9.259       9.277       9.296       9.316       9.337       9.361       9.388       9.418       9.455       9.500    
  20    9.000       9.045       9.082       9.112       9.139       9.163       9.184       9.204       9.223       9.241    
        9.259       9.277       9.296       9.316       9.337       9.361       9.388       9.418       9.455       9.500    
1
              HEAD IN LAYER   3 AT END OF TIME STEP   1 IN STRESS PERIOD    1
  ---------------------------------------------------------------------------

            1           2           3           4           5           6           7           8           9          10
           11          12          13          14          15          16          17          18          19          20
 ........................................................................................................................
   1    9.157       9.161       9.168       9.177       9.187       9.198       9.209       9.221       9.232       9.244    
        9.256       9.268       9.279       9.291       9.302       9.313       9.323       9.332       9.339       9.343    
   2    9.157       9.161       9.168       9.177       9.187       9.198       9.209       9.221       9.232       9.244    
        9.256       9.268       9.279       9.291       9.302       9.313       9.323       9.332       9.339       9.343    
   3    9.157       9.161       9.168       9.177       9.187       9.198       9.209       9.221       9.232       9.244    
        9.256       9.268       9.279       9.291       9.302       9.313       9.323       9.332       9.339       9.343    
   4    9.157       9.161       9.168       9.177       9.187       9.198       9.209       9.221       9.232       9.244    
        9.256       9.268       9.279       9.291       9.302       9.313       9.323       9.332       9.339       9.343    
   5    9.157       9.161       9.168       9.177       9.187       9.198       9.209       9.221       9.232       9.244    
        9.256       9.268       9.279       9.291       9.302       9.313       9.323       9.332       9.339       9.343    
   6    9.157       9.161       9.168       9.177       9.187       9.198       9.209       9.221       9.232       9.244    
        9.256       9.268       9.279       9.291       9.302       9.313       9.323       9.332       9.339       9.343    
   7    9.157       9.161       9.168       9.177       9.187       9.198       9.209       9.221       9.232       9.244    
        9.256       9.268       9.279       9.291       9.302       9.313       9.323       9.332       9.339       9.343    
   8    9.157       9.161       9.168       9.177       9.187       9.198       9.209       9.221       9.232       9.244    
        9.256       9.268       9.279       9.291       9.302       9.313       9.323       9.332       9.339       9.343    
   9    9.157       9.161       9.168       9.177       9.187       9.198       9.209       9.221       9.232       9.244    
        9.256       9.268       9.279       9.291       9.302       9.313       9.323       9.332       9.339       9.343    
  10    9.157       9.161       9.168       9.177       9.187       9.198       9.209       9.221       9.232       9.244    
        9.256       9.268       9.279       9.291       9.302       9.313       9.323       9.332       9.339       9.343    
  11    9.157       9.161       9.168       9.177       9.187       9.198       9.209       9.221       9.232       9.244    
        9.256       9.268       9.279       9.291       9.302       9.313       9.323       9.332       9.339       9.343    
  12    9.157       9.161       9.168       9.177       9.187       9.198       9.209       9.221       9.232       9.244    
        9.256       9.268       9.279       9.291       9.302       9.313       9.323       9.332       9.339       9.343    
  13    9.157       9.161       9.168       9.177       9.187       9.198       9.209       9.221       9.232       9.244    
        9.256       9.268       9.279       9.291       9.302       9.313       9.323       9.332       9.339       9.343    
  14    9.157       9.161       9.168       9.177       9.187       9.198       9.209       9.221       9.232       9.244    
        9.256       9.268       9.279       9.291       9.302       9.313       9.323       9.332       9.339       9.343    
  15    9.157       9.161       9.168       9.177       9.187       9.198       9.209       9.221       9.232       9.244    
        9.256       9.268       9.279       9.291       9.302       9.313       9.323       9.332       9.339       9.343    
  16    9.157       9.161       9.168       9.177       9.187       9.198       9.209       9.221       9.232       9.244    
        9.256       9.268       9.279       9.291       9.302       9.313       9.323       9.332       9.339       9.343    
  17    9.157       9.161       9.168       9.177       9.187       9.198       9.209       9.221       9.232       9.244    
        9.256       9.268       9.279       9.291       9.302       9.313       9.323       9.332       9.339       9.343    
  18    9.157       9.161       9.168       9.177       9.187       9.198       9.209       9.221       9.232       9.244    
        9.256       9.268       9.279       9.291       9.302       9.313       9.323       9.332       9.339       9.343    
  19    9.157       9.161       9.168       9.177       9.187       9.198       9.209       9.221       9.232       9.244    
        9.256       9.268       9.279       9.291       9.302       9.313       9.323       9.332       9.339       9.343    
  20    9.157       9.161       9.168       9.177       9.187       9.198       9.209       9.221       9.232       9.244    
        9.256       9.268       9.279       9.291       9.302       9.313       9.323       9.332       9.339       9.343    
1
              HEAD IN LAYER   4 AT END OF TIME STEP   1 IN STRESS PERIOD    1
  ---------------------------------------------------------------------------

            1           2           3           4           5           6           7           8           9          10
           11          12          13          14          15          16          17          18          19          20
 ........................................................................................................................
   1    9.206       9.207       9.209       9.213       9.217       9.222       9.228       9.234       9.240       9.247    
        9.253       9.260       9.266       9.272       9.278       9.283       9.287       9.291       9.293       9.294    
   2    9.206       9.207       9.209       9.213       9.217       9.222       9.228       9.234       9.240       9.247    
        9.253       9.260       9.266       9.272       9.278       9.283       9.287       9.291       9.293       9.294    
   3    9.206       9.207       9.209       9.213       9.217       9.222       9.228       9.234       9.240       9.247    
        9.253       9.260       9.266       9.272       9.278       9.283       9.287       9.291       9.293       9.294    
   4    9.206       9.207       9.209       9.213       9.217       9.222       9.228       9.234       9.240       9.247    
        9.253       9.260       9.266       9.272       9.278       9.283       9.287       9.291       9.293       9.294    
   5    9.206       9.207       9.209       9.213       9.217       9.222       9.228       9.234       9.240       9.247    
        9.253       9.260       9.266       9.272       9.278       9.283       9.287       9.291       9.293       9.294    
   6    9.206       9.207       9.209       9.213       9.217       9.222       9.228       9.234       9.240       9.247    
        9.253       9.260       9.266       9.272       9.278       9.283       9.287       9.291       9.293       9.294    
   7    9.206       9.207       9.209       9.213       9.217       9.222       9.228       9.234       9.240       9.247    
        9.253       9.260       9.266       9.272       9.278       9.283       9.287       9.291       9.293       9.294    
   8    9.206       9.207       9.209       9.213       9.217       9.222       9.228       9.234       9.240       9.247    
        9.253       9.260       9.266       9.272       9.278       9.283       9.287       9.291       9.293       9.294    
   9    9.206       9.207       9.209       9.213       9.217       9.222       9.228       9.234       9.240       9.247    
        9.253       9.260       9.266       9.272       9.278       9.283       9.287       9.291       9.293       9.294    
  10    9.206       9.207       9.209       9.213       9.217       9.222       9.228       9.234       9.240       9.247    
        9.253       9.260       9.266       9.272       9.278       9.283       9.287       9.291       9.293       9.294    
  11    9.206       9.207       9.209       9.213       9.217       9.222       9.228       9.234       9.240       9.247    
        9.253       9.260       9.266       9.272       9.278       9.283       9.287       9.291       9.293       9.294    
  12    9.206       9.207       9.209       9.213       9.217       9.222       9.228       9.234       9.240       9.247    
        9.253       9.260       9.266       9.272       9.278       9.283       9.287       9.291       9.293       9.294    
  13    9.206       9.207       9.209       9.213       9.217       9.222       9.228       9.234       9.240       9.247    
        9.253       9.260       9.266       9.272       9.278       9.283       9.287       9.291       9.293       9.294    
  14    9.206       9.207       9.209       9.213       9.217       9.222       9.228       9.234       9.240       9.247    
        9.253       9.260       9.266       9.272       9.278       9.283       9.287       9.291       9.293       9.294    
  15    9.206       9.207       9.209       9.213       9.217       9.222       9.228       9.234       9.240       9.247    
        9.253       9.260       9.266       9.272       9.278       9.283       9.287       9.291       9.293       9.294    
  16    9.206       9.207       9.209       9.213       9.217       9.222       9.228       9.234       9.240       9.247    
        9.253       9.260       9.266       9.272       9.278       9.283       9.287       9.291       9.293       9.294    
  17    9.206       9.207       9.209       9.213       9.217       9.222       9.228       9.234       9.240       9.247    
        9.253       9.260       9.266       9.272       9.278       9.283       9.287       9.291       9.293       9.294    
  18    9.206       9.207       9.209       9.213       9.217       9.222       9.228       9.234       9.240       9.247    
        9.253       9.260       9.266       9.272       9.278       9.283       9.287       9.291       9.293       9.294    
  19    9.206       9.207       9.209       9.213       9.217       9.222       9.228       9.234       9.240       9.247    
        9.253       9.260       9.266       9.272       9.278       9.283       9.287       9.291       9.293       9.294    
  20    9.206       9.207       9.209       9.213       9.217       9.222       9.228       9.234       9.240       9.247    
        9.253       9.260       9.266       9.272       9.278       9.283       9.287       9.291       9.293       9.294    
1
              HEAD IN LAYER   5 AT END OF TIME STEP   1 IN STRESS PERIOD    1
  ---------------------------------------------------------------------------

            1           2           3           4           5           6           7           8           9          10
           11          12          13          14          15          16          17          18          19          20
 ........................................................................................................................
   1    9.223       9.224       9.225       9.227       9.230       9.233       9.236       9.240       9.244       9.248    
        9.252       9.256       9.260       9.264       9.267       9.270       9.273       9.275       9.276       9.277    
   2    9.223       9.224       9.225       9.227       9.230       9.233       9.236       9.240       9.244       9.248    
        9.252       9.256       9.260       9.264       9.267       9.270       9.273       9.275       9.276       9.277    
   3    9.223       9.224       9.225       9.227       9.230       9.233       9.236       9.240       9.244       9.248    
        9.252       9.256       9.260       9.264       9.267       9.270       9.273       9.275       9.276       9.277    
   4    9.223       9.224       9.225       9.227       9.230       9.233       9.236       9.240       9.244       9.248    
        9.252       9.256       9.260       9.264       9.267       9.270       9.273       9.275       9.276       9.277    
   5    9.223       9.224       9.225       9.227       9.230       9.233       9.236       9.240       9.244       9.248    
        9.252       9.256       9.260       9.264       9.267       9.270       9.273       9.275       9.276       9.277    
   6    9.223       9.224       9.225       9.227       9.230       9.233       9.236       9.240       9.244       9.248    
        9.252       9.256       9.260       9.264       9.267       9.270       9.273       9.275       9.276       9.277    
   7    9.223       9.224       9.225       9.227       9.230       9.233       9.236       9.240       9.244       9.248    
        9.252       9.256       9.260       9.264       9.267       9.270       9.273       9.275       9.276       9.277    
   8    9.223       9.224       9.225       9.227       9.230       9.233       9.236       9.240       9.244       9.248    
        9.252       9.256       9.260       9.264       9.267       9.270       9.273       9.275       9.276       9.277    
   9    9.223       9.224       9.225       9.227       9.230       9.233       9.236       9.240       9.244       9.248    
        9.252       9.256       9.260       9.264       9.267       9.270       9.273       9.275       9.276       9.277    
  10    9.223       9.224       9.225       9.227       9.230       9.233       9.236       9.240       9.244       9.248    
        9.252       9.256       9.260       9.264       9.267       9.270       9.273       9.275       9.276       9.277    
  11    9.223       9.224       9.225       9.227       9.230       9.233       9.236       9.240       9.244       9.248    
        9.252       9.256       9.260       9.264       9.267       9.270       9.273       9.275       9.276       9.277    
  12    9.223       9.224       9.225       9.227       9.230       9.233       9.236       9.240       9.244       9.248    
        9.252       9.256       9.260       9.264       9.267       9.270       9.273       9.275       9.276       9.277    
  13    9.223       9.224       9.225       9.227       9.230       9.233       9.236       9.240       9.244       9.248    
        9.252       9.256       9.260       9.264       9.267       9.270       9.273       9.275       9.276       9.277    
  14    9.223       9.224       9.225       9.227       9.230       9.233       9.236       9.240       9.244       9.248    
        9.252       9.256       9.260       9.264       9.267       9.270       9.273       9.275       9.276       9.277    
  15    9.223       9.224       9.225       9.227       9.230       9.233       9.236       9.240       9.244       9.248    
        9.252       9.256       9.260       9.264       9.267       9.270       9.273       9.275       9.276       9.277    
  16    9.223       9.224       9.225       9.227       9.230       9.233       9.236       9.240       9.244       9.248    
        9.252       9.256       9.260       9.264       9.267       9.270       9.273       9.275       9.276       9.277    
  17    9.223       9.224       9.225       9.227       9.230       9.233       9.236       9.240       9.244       9.248    
        9.252       9.256       9.260       9.264       9.267       9.270       9.273       9.275       9.276       9.277    
  18    9.223       9.224       9.225       9.227       9.230       9.233       9.236       9.240       9.244       9.248    
        9.252       9.256       9.260       9.264       9.267       9.270       9.273       9.275       9.276       9.277    
  19    9.223       9.224       9.225       9.227       9.230       9.233       9.236       9.240       9.244       9.248    
        9.252       9.256       9.260       9.264       9.267       9.270       9.273       9.275       9.276       9.277    
  20    9.223       9.224       9.225       9.227       9.230       9.233       9.236       9.240       9.244       9.248    
        9.252       9.256       9.260       9.264       9.267       9.270       9.273       9.275       9.276       9.277    

 HEAD WILL BE SAVED ON UNIT   51 AT END OF TIME STEP    1, STRESS PERIOD    1
1
  VOLUMETRIC BUDGET FOR ENTIRE MODEL AT END OF TIME STEP    1, STRESS PERIOD   1
  ------------------------------------------------------------------------------

     CUMULATIVE VOLUMES      L**3       RATES FOR THIS TIME STEP      L**3/T
     ------------------                 ------------------------

           IN:                                      IN:
           ---                                      ---
             STORAGE =           0.0000               STORAGE =           0.0000
       CONSTANT HEAD =       5.6371E-05         CONSTANT HEAD =       5.6371E-05

            TOTAL IN =       5.6371E-05              TOTAL IN =       5.6371E-05

          OUT:                                     OUT:
          ----                                     ----
             STORAGE =           0.0000               STORAGE =           0.0000
       CONSTANT HEAD =       5.6371E-05         CONSTANT HEAD =       5.6371E-05

           TOTAL OUT =       5.6371E-05             TOTAL OUT =       5.6371E-05

            IN - OUT =      -1.0914E-10              IN - OUT =      -1.0914E-10

 PERCENT DISCREPANCY =          -0.00     PERCENT DISCREPANCY =          -0.00






         TIME SUMMARY AT END OF TIME STEP    1 IN STRESS PERIOD    1
                    SECONDS     MINUTES      HOURS       DAYS        YEARS
                    -----------------------------------------------------------
   TIME STEP LENGTH  1.0000     1.66667E-02 2.77778E-04 1.15741E-05 3.16881E-08
 STRESS PERIOD TIME  1.0000     1.66667E-02 2.77778E-04 1.15741E-05 3.16881E-08
         TOTAL TIME  1.0000     1.66667E-02 2.77778E-04 1.15741E-05 3.16881E-08
1

 Run end date and time (yyyy/mm/dd hh:mm:ss): 2024/01/12 22:11:05
 Elapsed run time:  0.063 Seconds

